Version 4
SHEET 1 2820 680
WIRE 1824 -256 1744 -256
WIRE 1968 -256 1904 -256
WIRE 2016 -256 1968 -256
WIRE 2160 -256 2096 -256
WIRE 1136 -192 1040 -192
WIRE 1248 -192 1200 -192
WIRE 2160 -128 2160 -256
WIRE 2208 -128 2160 -128
WIRE 2320 -128 2288 -128
WIRE 272 -112 208 -112
WIRE 416 -112 352 -112
WIRE 1120 -112 416 -112
WIRE 208 -96 208 -112
WIRE 992 -96 928 -96
WIRE 928 -80 928 -96
WIRE 1040 -80 1040 -192
WIRE 1152 -80 1040 -80
WIRE 1248 -80 1248 -192
WIRE 1248 -80 1232 -80
WIRE 1968 -80 1968 -256
WIRE 992 -64 992 -96
WIRE 480 -48 352 -48
WIRE 416 16 416 -112
WIRE 1120 16 1120 -112
WIRE 352 32 352 -48
WIRE 352 32 304 32
WIRE 384 32 352 32
WIRE 992 32 992 0
WIRE 1040 32 1040 -80
WIRE 1040 32 992 32
WIRE 1088 32 1040 32
WIRE 192 48 16 48
WIRE 304 48 304 32
WIRE 304 48 272 48
WIRE 560 48 560 -48
WIRE 560 48 448 48
WIRE 640 48 560 48
WIRE 752 48 720 48
WIRE 880 48 832 48
WIRE 992 48 992 32
WIRE 992 48 960 48
WIRE 1248 48 1248 -80
WIRE 1248 48 1152 48
WIRE 1296 48 1248 48
WIRE 1408 48 1376 48
WIRE 1424 48 1408 48
WIRE 1536 48 1504 48
WIRE 1568 48 1536 48
WIRE 1744 48 1744 -256
WIRE 1744 48 1648 48
WIRE 1824 48 1744 48
WIRE 2160 48 2160 -128
WIRE 2224 48 2160 48
WIRE 384 64 336 64
WIRE 1088 64 1024 64
WIRE 1968 64 1968 -16
WIRE 1968 64 1888 64
WIRE 2032 64 1968 64
WIRE 2112 64 2096 64
WIRE 2320 64 2320 -128
WIRE 2320 64 2288 64
WIRE 2368 64 2320 64
WIRE 1824 80 1776 80
WIRE 2112 80 2112 64
WIRE 2224 80 2112 80
WIRE 2368 80 2368 64
WIRE 2384 80 2368 80
WIRE 2560 80 2528 80
WIRE 2624 80 2560 80
WIRE 2720 80 2624 80
WIRE 2768 80 2720 80
WIRE 416 112 416 80
WIRE 432 112 416 112
WIRE 1024 112 1024 64
WIRE 1408 112 1408 48
WIRE 1536 112 1536 48
WIRE 16 128 16 48
WIRE 336 128 336 64
WIRE 2560 128 2560 80
WIRE 2624 144 2624 80
WIRE 2720 144 2720 80
WIRE 1776 160 1776 80
WIRE 1408 192 1408 176
WIRE 1472 192 1408 192
WIRE 1536 192 1536 176
WIRE 1536 192 1472 192
WIRE 2624 240 2624 208
WIRE 2624 240 2560 240
WIRE 2720 240 2720 208
WIRE 2720 240 2624 240
WIRE 432 256 432 112
WIRE 1120 256 1120 80
WIRE 1120 256 432 256
WIRE 1472 256 1472 192
WIRE 1744 272 1744 48
WIRE 1824 272 1744 272
WIRE 2112 272 2112 80
WIRE 2112 272 1904 272
WIRE 432 288 432 256
WIRE 2624 304 2624 240
FLAG 16 208 0
FLAG 432 368 0
FLAG 208 -96 0
FLAG 336 128 0
FLAG 1024 112 0
FLAG 1776 160 0
FLAG 1472 256 0
FLAG 2624 304 0
FLAG 2768 80 AD
FLAG 928 -80 0
SYMBOL voltage 16 112 R0
WINDOW 123 0 0 Left 0
WINDOW 39 0 0 Left 0
SYMATTR InstName V1
SYMATTR Value PULSE(-3.3 3.3 0 0 0 0.00032 0.00064 10000)
SYMBOL OpAmps\\AD8039 416 -16 R0
SYMATTR InstName U1
SYMBOL voltage 432 272 R0
WINDOW 123 0 0 Left 0
WINDOW 39 0 0 Left 0
SYMATTR InstName V2
SYMATTR Value -3.3
SYMBOL voltage 368 -112 R90
WINDOW 123 0 0 Left 0
WINDOW 39 0 0 Left 0
SYMATTR InstName V3
SYMATTR Value 3.3
SYMBOL res 288 32 R90
WINDOW 0 0 56 VBottom 2
WINDOW 3 32 56 VTop 2
SYMATTR InstName R1
SYMATTR Value 51k
SYMBOL res 576 -64 R90
WINDOW 0 0 56 VBottom 2
WINDOW 3 32 56 VTop 2
SYMATTR InstName R2
SYMATTR Value 2k
SYMBOL res 736 32 R90
WINDOW 0 0 56 VBottom 2
WINDOW 3 32 56 VTop 2
SYMATTR InstName R3
SYMATTR Value 1k
SYMBOL OpAmps\\AD8039 1120 -16 R0
SYMATTR InstName U2
SYMBOL res 976 32 R90
WINDOW 0 0 56 VBottom 2
WINDOW 3 32 56 VTop 2
SYMATTR InstName R4
SYMBOL res 1248 -96 R90
WINDOW 0 0 56 VBottom 2
WINDOW 3 32 56 VTop 2
SYMATTR InstName R5
SYMBOL res 1392 32 R90
WINDOW 0 0 56 VBottom 2
WINDOW 3 32 56 VTop 2
SYMATTR InstName R6
SYMATTR Value 10k
SYMBOL res 1520 32 R90
WINDOW 0 0 56 VBottom 2
WINDOW 3 32 56 VTop 2
SYMATTR InstName R7
SYMBOL res 1664 32 R90
WINDOW 0 0 56 VBottom 2
WINDOW 3 32 56 VTop 2
SYMATTR InstName R8
SYMATTR Value 36k
SYMBOL OpAmps\\AD8039 1856 0 R0
SYMATTR InstName U3
SYMBOL OpAmps\\AD8039 2256 0 R0
SYMATTR InstName U4
SYMBOL cap 1392 112 R0
SYMATTR InstName C1
SYMATTR Value 68n
SYMBOL cap 1520 112 R0
SYMATTR InstName C2
SYMBOL res 1920 256 R90
WINDOW 0 0 56 VBottom 2
WINDOW 3 32 56 VTop 2
SYMATTR InstName R9
SYMATTR Value 36k
SYMBOL res 1920 -272 R90
WINDOW 0 0 56 VBottom 2
WINDOW 3 32 56 VTop 2
SYMATTR InstName R10
SYMATTR Value 36k
SYMBOL res 2112 -272 R90
WINDOW 0 0 56 VBottom 2
WINDOW 3 32 56 VTop 2
SYMATTR InstName R11
SYMATTR Value 36k
SYMBOL res 2304 -144 R90
WINDOW 0 0 56 VBottom 2
WINDOW 3 32 56 VTop 2
SYMATTR InstName R12
SYMATTR Value 36k
SYMBOL res 2576 224 R180
WINDOW 0 36 76 Left 2
WINDOW 3 36 40 Left 2
SYMATTR InstName R14
SYMBOL cap 2608 144 R0
SYMATTR InstName C3
SYMATTR Value 680n
SYMBOL diode 2736 208 R180
WINDOW 0 24 64 Left 2
WINDOW 3 24 0 Left 2
SYMATTR InstName D1
SYMBOL diode 2384 96 R270
WINDOW 0 32 32 VTop 2
WINDOW 3 0 32 VBottom 2
SYMATTR InstName D2
SYMBOL diode 2032 80 R270
WINDOW 0 32 32 VTop 2
WINDOW 3 0 32 VBottom 2
SYMATTR InstName D3
SYMBOL diode 1952 -80 R0
SYMATTR InstName D4
SYMBOL cap 1200 -208 R90
WINDOW 0 0 32 VBottom 2
WINDOW 3 32 32 VTop 2
SYMATTR InstName C4
SYMBOL cap 1008 0 R180
WINDOW 0 24 56 Left 2
WINDOW 3 24 8 Left 2
SYMATTR InstName C5
SYMBOL res 2544 64 R90
WINDOW 0 0 56 VBottom 2
WINDOW 3 32 56 VTop 2
SYMATTR InstName R13
SYMATTR Value 10k
SYMBOL res 848 32 R90
WINDOW 0 0 56 VBottom 2
WINDOW 3 32 56 VTop 2
SYMATTR InstName R15
SYMATTR Value 0
TEXT -18 392 Left 2 !.tran 0.01
TEXT 784 -32 Left 2 ;Soil
